
 OpenBabel10212513103D

 47 49  0  0  0  0  0  0  0  0999 V2000
   -3.0173   -0.6707   -2.9535 C   0  0  0  0  0  0  0  0  0  0  0  0
   -2.1939   -1.5650   -2.2701 C   0  0  0  0  0  0  0  0  0  0  0  0
   -1.6807   -1.2279   -1.0160 C   0  0  0  0  0  0  0  0  0  0  0  0
   -2.0119    0.0112   -0.4604 C   0  0  0  0  0  0  0  0  0  0  0  0
   -2.7906    0.9432   -1.1540 C   0  0  0  0  0  0  0  0  0  0  0  0
   -3.3108    0.5817   -2.4023 C   0  0  0  0  0  0  0  0  0  0  0  0
   -3.0421    2.2387   -0.6535 N   0  0  0  0  0  0  0  0  0  0  0  0
   -2.5566    2.7780    0.5307 C   0  0  0  0  0  0  0  0  0  0  0  0
   -1.7940    2.2377    1.3303 O   0  0  0  0  0  0  0  0  0  0  0  0
   -3.0094    4.2107    0.7668 C   0  0  0  0  0  0  0  0  0  0  0  0
   -4.4415    4.2501    0.7428 O   0  0  0  0  0  0  0  0  0  0  0  0
   -4.9373    5.5563    1.0121 C   0  0  0  0  0  0  0  0  0  0  0  0
   -4.5137    6.5306   -0.0775 C   0  0  0  0  0  0  0  0  0  0  0  0
   -3.7940    7.5008    0.1629 O   0  0  0  0  0  0  0  0  0  0  0  0
   -4.9535    6.1553   -1.3422 N   0  0  0  0  0  0  0  0  0  0  0  0
   -4.5338    6.8587   -2.4947 C   0  0  0  0  0  0  0  0  0  0  0  0
   -5.4507    7.3219   -3.4534 C   0  0  0  0  0  0  0  0  0  0  0  0
   -4.9890    8.0639   -4.5510 C   0  0  0  0  0  0  0  0  0  0  0  0
   -3.6230    8.2768   -4.7238 C   0  0  0  0  0  0  0  0  0  0  0  0
   -2.7057    7.7754   -3.8071 C   0  0  0  0  0  0  0  0  0  0  0  0
   -3.1620    7.0774   -2.6900 C   0  0  0  0  0  0  0  0  0  0  0  0
   -3.0726    9.1808   -6.0789 Cl  0  0  0  0  0  0  0  0  0  0  0  0
   -6.9127    7.1454   -3.2486 C   0  0  0  0  0  0  0  0  0  0  0  0
   -7.4184    7.0791   -2.1412 O   0  0  0  0  0  0  0  0  0  0  0  0
   -7.6154    6.9959   -4.3858 O   0  0  0  0  0  0  0  0  0  0  0  0
   -0.7559   -2.0913   -0.3071 C   0  0  0  0  0  0  0  0  0  0  0  0
   -0.7640   -3.4694   -0.3526 C   0  0  0  0  0  0  0  0  0  0  0  0
    0.2504   -3.9817    0.3948 O   0  0  0  0  0  0  0  0  0  0  0  0
    0.9165   -2.9281    0.9304 C   0  0  0  0  0  0  0  0  0  0  0  0
    0.3326   -1.7434    0.5436 C   0  0  0  0  0  0  0  0  0  0  0  0
   -3.4124   -0.9417   -3.9286 H   0  0  0  0  0  0  0  0  0  0  0  0
   -1.9374   -2.5129   -2.7385 H   0  0  0  0  0  0  0  0  0  0  0  0
   -1.6373    0.2349    0.5324 H   0  0  0  0  0  0  0  0  0  0  0  0
   -3.9372    1.2661   -2.9653 H   0  0  0  0  0  0  0  0  0  0  0  0
   -3.6285    2.8459   -1.2201 H   0  0  0  0  0  0  0  0  0  0  0  0
   -2.5809    4.8267   -0.0195 H   0  0  0  0  0  0  0  0  0  0  0  0
   -2.6343    4.5412    1.7365 H   0  0  0  0  0  0  0  0  0  0  0  0
   -4.5872    5.9102    1.9899 H   0  0  0  0  0  0  0  0  0  0  0  0
   -6.0307    5.5043    1.0450 H   0  0  0  0  0  0  0  0  0  0  0  0
   -5.8956    5.7643   -1.3460 H   0  0  0  0  0  0  0  0  0  0  0  0
   -5.6843    8.5219   -5.2497 H   0  0  0  0  0  0  0  0  0  0  0  0
   -1.6394    7.9431   -3.9396 H   0  0  0  0  0  0  0  0  0  0  0  0
   -2.4312    6.7017   -1.9738 H   0  0  0  0  0  0  0  0  0  0  0  0
   -7.1000    6.9118   -5.2086 H   0  0  0  0  0  0  0  0  0  0  0  0
   -1.3907   -4.2014   -0.8387 H   0  0  0  0  0  0  0  0  0  0  0  0
    1.7705   -3.1732    1.5456 H   0  0  0  0  0  0  0  0  0  0  0  0
    0.6654   -0.7529    0.8223 H   0  0  0  0  0  0  0  0  0  0  0  0
  1  2  2  0  0  0  0
  1  6  1  0  0  0  0
  1 31  1  0  0  0  0
  2  3  1  0  0  0  0
  2 32  1  0  0  0  0
  3  4  2  0  0  0  0
  3 26  1  0  0  0  0
  4  5  1  0  0  0  0
  4 33  1  0  0  0  0
  5  6  2  0  0  0  0
  5  7  1  0  0  0  0
  6 34  1  0  0  0  0
  7  8  1  0  0  0  0
  7 35  1  0  0  0  0
  8  9  2  0  0  0  0
  8 10  1  0  0  0  0
 10 11  1  0  0  0  0
 10 36  1  0  0  0  0
 10 37  1  0  0  0  0
 11 12  1  0  0  0  0
 12 13  1  0  0  0  0
 12 38  1  0  0  0  0
 12 39  1  0  0  0  0
 13 14  2  0  0  0  0
 13 15  1  0  0  0  0
 15 16  1  0  0  0  0
 15 40  1  0  0  0  0
 16 17  2  0  0  0  0
 16 21  1  0  0  0  0
 17 18  1  0  0  0  0
 17 23  1  0  0  0  0
 18 19  2  0  0  0  0
 18 41  1  0  0  0  0
 19 20  1  0  0  0  0
 19 22  1  0  0  0  0
 20 21  2  0  0  0  0
 20 42  1  0  0  0  0
 21 43  1  0  0  0  0
 23 24  2  0  0  0  0
 23 25  1  0  0  0  0
 25 44  1  0  0  0  0
 26 27  2  0  0  0  0
 26 30  1  0  0  0  0
 27 28  1  0  0  0  0
 27 45  1  0  0  0  0
 28 29  1  0  0  0  0
 29 30  2  0  0  0  0
 29 46  1  0  0  0  0
 30 47  1  0  0  0  0
M  END
$$$$
